Version 4
SHEET 1 880 680
WIRE 0 144 0 80
