Version 4
SHEET 1 1140 760
WIRE 448 -640 448 -656
WIRE 144 -528 0 -528
WIRE 448 -528 448 -560
WIRE 448 -528 144 -528
WIRE 704 -528 448 -528
WIRE 944 -528 704 -528
WIRE 1008 -528 944 -528
WIRE 1120 -528 1072 -528
WIRE 704 -496 704 -528
WIRE 1120 -496 1120 -528
WIRE 0 -448 0 -528
WIRE 704 -384 704 -416
WIRE 0 -336 0 -368
WIRE 528 -336 0 -336
WIRE 640 -336 528 -336
WIRE 944 -256 944 -528
WIRE 528 -208 528 -336
WIRE 576 -208 528 -208
WIRE 704 -208 704 -288
WIRE 704 -208 640 -208
WIRE 880 -208 704 -208
WIRE 704 -112 704 -208
WIRE 704 -112 544 -112
WIRE 544 -80 544 -112
WIRE 704 -16 704 -112
WIRE 544 32 544 0
WIRE 640 32 544 32
WIRE 944 32 944 -112
WIRE 544 48 544 32
WIRE 0 144 0 -336
WIRE 144 144 144 -528
WIRE 544 160 544 128
WIRE 704 160 704 80
WIRE 704 160 544 160
WIRE -240 192 -304 192
WIRE -128 192 -176 192
WIRE -64 192 -128 192
WIRE 304 192 208 192
WIRE 368 192 304 192
WIRE 944 192 944 112
WIRE 944 192 448 192
WIRE 1072 192 944 192
WIRE -128 208 -128 192
WIRE 304 224 304 192
WIRE 1072 224 1072 192
WIRE -304 256 -304 192
WIRE 944 256 944 192
WIRE 704 272 704 160
WIRE 832 272 704 272
WIRE 0 288 0 240
WIRE 64 288 0 288
WIRE 144 288 144 240
WIRE 144 288 64 288
WIRE 704 304 704 272
WIRE 304 320 304 304
WIRE 64 352 64 288
WIRE 448 352 416 352
WIRE 576 352 528 352
WIRE 640 352 576 352
WIRE 1072 352 1072 304
WIRE 944 368 944 336
WIRE -304 384 -304 336
WIRE 304 416 304 384
WIRE 416 416 416 352
WIRE 576 416 576 352
WIRE -64 448 -128 448
WIRE 64 448 64 432
WIRE 64 448 0 448
WIRE -128 464 -128 448
WIRE 64 464 64 448
WIRE 704 464 704 400
WIRE 832 464 832 272
WIRE 880 464 832 464
WIRE 576 496 576 480
WIRE 64 592 64 544
WIRE 512 592 64 592
WIRE 576 592 576 560
WIRE 576 592 512 592
WIRE 704 592 704 544
WIRE 704 592 576 592
WIRE 944 592 944 512
WIRE 944 592 704 592
WIRE 992 592 944 592
WIRE 1104 592 1056 592
WIRE 1104 608 1104 592
WIRE 512 624 512 592
WIRE 512 720 512 704
FLAG -128 464 0
FLAG -128 288 0
FLAG 304 416 0
FLAG 416 416 0
FLAG 1072 352 0
FLAG 1104 608 0
FLAG 512 720 0
FLAG 1120 -496 0
FLAG 448 -656 0
FLAG -304 384 0
DATAFLAG 64 448 ""
DATAFLAG 64 288 ""
DATAFLAG -128 192 ""
SYMBOL npn -64 144 R0
SYMATTR InstName Q1
SYMATTR Value 2N2222
SYMBOL npn 208 144 M0
SYMATTR InstName Q2
SYMATTR Value 2N2222
SYMBOL res 48 336 R0
SYMATTR InstName R3
SYMATTR Value 4700
SYMBOL res 48 448 R0
SYMATTR InstName R4
SYMATTR Value 1500
SYMBOL zener 0 432 R90
WINDOW 0 -4 32 VBottom 2
WINDOW 3 36 32 VTop 2
SYMATTR InstName D1
SYMATTR Value BZX84C10L
SYMBOL res -144 192 R0
SYMATTR InstName R1
SYMATTR Value 10k
SYMBOL cap 288 320 R0
SYMATTR InstName C1
SYMATTR Value 47µ
SYMBOL res 288 208 R0
SYMATTR InstName R2
SYMATTR Value 1200
SYMBOL res 464 176 R90
WINDOW 0 0 56 VBottom 2
WINDOW 3 32 56 VTop 2
SYMATTR InstName R11
SYMATTR Value 10K
SYMBOL res 544 336 R90
WINDOW 0 0 56 VBottom 2
WINDOW 3 32 56 VTop 2
SYMATTR InstName R9
SYMATTR Value 15K
SYMBOL diode 560 496 R0
SYMATTR InstName D2
SYMBOL diode 592 416 M0
SYMATTR InstName D3
SYMBOL npn 640 304 R0
SYMATTR InstName Q3
SYMATTR Value 2N2222
SYMBOL res 688 448 R0
SYMATTR InstName R10
SYMATTR Value 120
SYMBOL res 928 240 R0
SYMATTR InstName Re2
SYMATTR Value 0.39
SYMBOL res 1056 208 R0
SYMATTR InstName Rcarga
SYMATTR Value 4
SYMBOL ZZZ\\Darlington\\TIP120 944 -192 R0
SYMATTR InstName U1
SYMBOL ZZZ\\Darlington\\tip127 944 448 R0
SYMATTR InstName U2
SYMBOL cap 1056 576 R90
WINDOW 0 0 32 VBottom 2
WINDOW 3 32 32 VTop 2
SYMATTR InstName Cg
SYMATTR Value 470n
SYMBOL voltage 512 608 R0
WINDOW 123 0 0 Left 0
WINDOW 39 0 0 Left 0
SYMATTR InstName Vcc-
SYMATTR Value -15
SYMBOL npn 640 -16 R0
SYMATTR InstName Q4
SYMATTR Value 2N2222
SYMBOL res 528 32 R0
SYMATTR InstName R8
SYMATTR Value 2200
SYMBOL res 528 -96 R0
SYMATTR InstName R7
SYMATTR Value 2200
SYMBOL res 928 16 R0
SYMATTR InstName Re1
SYMATTR Value 0.39
SYMBOL cap 640 -224 R90
WINDOW 0 0 32 VBottom 2
WINDOW 3 32 32 VTop 2
SYMATTR InstName C2
SYMATTR Value 47p
SYMBOL pnp 640 -288 M180
SYMATTR InstName Q5
SYMATTR Value 2N2907
SYMBOL res 688 -512 R0
SYMATTR InstName R6
SYMATTR Value 10
SYMBOL res -16 -464 R0
SYMATTR InstName R5
SYMATTR Value 680
SYMBOL cap 1072 -544 R90
WINDOW 0 0 32 VBottom 2
WINDOW 3 32 32 VTop 2
SYMATTR InstName C3
SYMATTR Value 470n
SYMBOL voltage 448 -544 R180
WINDOW 0 24 96 Left 2
WINDOW 3 24 16 Left 2
SYMATTR InstName Vcc+
SYMATTR Value 15
SYMBOL cap -176 176 R90
WINDOW 0 0 32 VBottom 2
WINDOW 3 32 32 VTop 2
SYMATTR InstName C4
SYMATTR Value 10µ
SYMBOL voltage -304 240 R0
WINDOW 123 0 0 Left 0
WINDOW 39 0 0 Left 0
SYMATTR InstName V1
SYMATTR Value SINE(0 200m 1k)
TEXT -246 744 Left 2 !.tran 0.01
