Version 4
SHEET 1 880 696
WIRE 0 -32 0 -64
WIRE 144 -32 0 -32
WIRE 0 0 0 -32
WIRE 0 112 0 80
WIRE 0 144 0 112
WIRE 144 144 144 -32
WIRE -256 192 -320 192
WIRE -128 192 -176 192
WIRE -64 192 -128 192
WIRE 240 192 208 192
WIRE 400 192 320 192
WIRE -128 208 -128 192
WIRE -320 224 -320 192
WIRE 400 224 400 192
WIRE 0 288 0 240
WIRE 64 288 0 288
WIRE 144 288 144 240
WIRE 144 288 64 288
WIRE 64 352 64 288
WIRE -64 448 -128 448
WIRE 64 448 64 432
WIRE 64 448 0 448
WIRE -128 464 -128 448
WIRE 64 464 64 448
WIRE 64 576 64 544
FLAG 0 -144 0
FLAG -128 464 0
FLAG 64 656 0
FLAG -128 288 0
FLAG -320 224 0
FLAG 400 224 0
DATAFLAG 32 448 ""
SYMBOL res -16 -16 R0
SYMATTR InstName R1
SYMATTR Value 680
SYMBOL voltage 0 -160 R0
SYMATTR InstName V1
SYMATTR Value 15
SYMBOL npn -64 144 R0
SYMATTR InstName Q1
SYMBOL npn 208 144 M0
SYMATTR InstName Q2
SYMBOL res 48 336 R0
SYMATTR InstName R2
SYMATTR Value 4700
SYMBOL res 48 448 R0
SYMATTR InstName R3
SYMATTR Value 1500
SYMBOL zener 0 432 R90
WINDOW 0 -4 32 VBottom 2
WINDOW 3 36 32 VTop 2
SYMATTR InstName D1
SYMATTR Value BZX84C10L
SYMBOL voltage 64 560 R0
WINDOW 123 0 0 Left 0
WINDOW 39 0 0 Left 0
SYMATTR InstName V2
SYMATTR Value -15
SYMBOL res -144 192 R0
SYMATTR InstName R4
SYMATTR Value 10k
SYMBOL voltage -160 192 R90
WINDOW 0 -32 56 VBottom 2
WINDOW 3 32 56 VTop 2
WINDOW 123 0 0 Left 0
WINDOW 39 0 0 Left 0
SYMATTR InstName V3
SYMATTR Value SINE(0 100m 1k)
SYMBOL voltage 224 192 R270
WINDOW 0 32 56 VTop 2
WINDOW 3 -32 56 VBottom 2
WINDOW 123 0 0 Left 0
WINDOW 39 0 0 Left 0
SYMATTR InstName V4
SYMATTR Value SINE(0 -50m 1k)
SYMBOL cap 64 96 R90
WINDOW 0 0 32 VBottom 2
WINDOW 3 32 32 VTop 2
SYMATTR InstName C1
SYMATTR Value 10n
TEXT -148 680 Left 2 !.tran 0.01
