Version 4
SHEET 1 880 1012
WIRE 16 16 -160 16
WIRE 256 16 16 16
WIRE 528 16 256 16
WIRE 16 32 16 16
WIRE 528 48 528 16
WIRE 256 80 256 16
WIRE 16 128 16 112
WIRE 192 128 16 128
WIRE 528 160 528 128
WIRE -160 224 -160 16
WIRE 256 240 256 224
WIRE 16 304 16 128
WIRE 256 352 256 320
WIRE 416 352 256 352
WIRE 256 368 256 352
WIRE 416 368 416 352
WIRE 256 464 256 448
WIRE 416 480 416 448
WIRE 16 560 16 384
WIRE 192 560 16 560
WIRE 16 576 16 560
WIRE -160 624 -160 304
WIRE -160 624 -384 624
WIRE -48 624 -160 624
WIRE -384 704 -384 624
WIRE -160 704 -160 624
WIRE 16 704 16 672
WIRE -384 832 -384 784
WIRE -160 832 -160 784
WIRE -160 832 -384 832
WIRE 16 832 16 784
WIRE 16 832 -160 832
WIRE 96 832 16 832
WIRE 256 832 256 608
WIRE 256 832 96 832
WIRE 96 880 96 832
WIRE 96 992 96 960
FLAG 416 480 0
FLAG 528 160 0
FLAG 96 992 0
SYMBOL ZZZ\\Darlington\\tip122 256 144 R0
SYMATTR InstName U1
SYMBOL ZZZ\\Darlington\\tip127 256 544 R0
SYMATTR InstName U2
SYMBOL res 240 224 R0
SYMATTR InstName Ree1
SYMATTR Value 0.12
SYMBOL res 240 352 R0
SYMATTR InstName Ree2
SYMATTR Value 0.12
SYMBOL npn -48 576 R0
SYMATTR InstName Q1
SYMATTR Value BC337-25
SYMBOL res 0 688 R0
SYMATTR InstName RE
SYMATTR Value 30
SYMBOL res 400 352 R0
SYMATTR InstName RL
SYMATTR Value 4
SYMBOL res -176 688 R0
SYMATTR InstName RB
SYMATTR Value 10K
SYMBOL voltage 16 288 R0
SYMATTR InstName Vp
SYMATTR Value 2.5
SYMBOL res 0 16 R0
SYMATTR InstName RC
SYMATTR Value 150
SYMBOL voltage 528 32 R0
SYMATTR InstName V1
SYMATTR Value 16
SYMBOL res -176 208 R0
SYMATTR InstName R1
SYMATTR Value 16.6K
SYMBOL voltage -384 688 R0
WINDOW 123 0 0 Left 0
WINDOW 39 0 0 Left 0
SYMATTR InstName V2
SYMATTR Value SINE(0 0.25 1k)
SYMBOL voltage 96 864 R0
SYMATTR InstName V3
SYMATTR Value -16
TEXT -258 842 Left 2 !.tran .01
