Version 4
SHEET 1 880 680
WIRE -48 144 -192 144
WIRE 48 144 -48 144
WIRE 432 144 304 144
WIRE 560 144 432 144
WIRE 432 192 432 144
WIRE 560 224 560 144
WIRE -192 240 -192 144
WIRE -48 240 -48 144
WIRE 176 336 176 240
WIRE 432 336 432 272
WIRE 432 336 176 336
WIRE 176 352 176 336
WIRE -192 464 -192 320
WIRE -48 464 -48 304
WIRE 176 464 176 432
WIRE 560 464 560 288
FLAG 176 464 0
FLAG -48 464 0
FLAG 560 464 0
FLAG -192 464 0
SYMBOL ZZZ\\VolReg\\LM317-1 176 144 R0
SYMATTR InstName U1
SYMBOL res 416 176 R0
SYMATTR InstName R1
SYMATTR Value 220
SYMBOL res 160 336 R0
SYMATTR InstName R2
SYMATTR Value 2200
SYMBOL cap -64 240 R0
SYMATTR InstName C2
SYMATTR Value 1000µ
SYMBOL cap 544 224 R0
SYMATTR InstName C1
SYMATTR Value 10µ
SYMBOL voltage -192 224 R0
WINDOW 3 -65 -47 VRight 2
WINDOW 123 0 0 Left 0
WINDOW 39 0 0 Left 0
SYMATTR Value SINE(24 400mV 10k)
SYMATTR InstName V1
TEXT -272 488 Left 2 !.tran .001
