Version 4
SHEET 1 1508 680
WIRE 448 112 64 112
WIRE 448 144 448 112
WIRE 448 144 384 144
WIRE 512 144 448 144
WIRE 64 160 64 112
WIRE 384 208 336 208
WIRE 592 208 512 208
WIRE 736 208 672 208
WIRE 880 208 736 208
WIRE 1232 208 1136 208
WIRE 1472 208 1232 208
WIRE 736 240 736 208
WIRE 64 272 64 240
WIRE 384 272 64 272
WIRE 512 272 384 272
WIRE 1232 272 1232 208
WIRE 1472 288 1472 208
WIRE 336 336 336 208
WIRE 576 336 336 336
WIRE 736 336 736 304
WIRE 736 336 576 336
WIRE 1008 416 1008 304
WIRE 1232 416 1232 352
WIRE 1232 416 1008 416
WIRE 1008 432 1008 416
WIRE 1472 448 1472 368
WIRE 736 560 736 336
WIRE 1008 560 1008 512
WIRE 1008 560 736 560
FLAG 1472 448 0
FLAG 576 336 0
SYMBOL voltage 64 144 R0
WINDOW 123 0 0 Left 0
WINDOW 39 0 0 Left 0
SYMATTR InstName V1
SYMATTR Value SINE(0 28.76 50)
SYMBOL diode 496 144 R0
SYMATTR InstName D1
SYMBOL diode 528 272 R180
WINDOW 0 24 64 Left 2
WINDOW 3 24 0 Left 2
SYMATTR InstName D2
SYMBOL diode 400 208 R180
WINDOW 0 24 64 Left 2
WINDOW 3 24 0 Left 2
SYMATTR InstName D3
SYMBOL diode 368 208 R0
SYMATTR InstName D4
SYMBOL res 688 192 R90
WINDOW 0 0 56 VBottom 2
WINDOW 3 32 56 VTop 2
SYMATTR InstName R1
SYMATTR Value 10
SYMBOL cap 720 240 R0
SYMATTR InstName C1
SYMATTR Value 1000µ
SYMBOL ZZZ\\VolReg\\LM317-1 1008 208 R0
SYMATTR InstName U1
SYMBOL res 992 416 R0
SYMATTR InstName R2
SYMATTR Value 2200
SYMBOL res 1216 256 R0
SYMATTR InstName R3
SYMATTR Value 240
SYMBOL res 1456 272 R0
SYMATTR InstName R4
SYMATTR Value 50
TEXT 32 344 Left 2 !.tran 1
